/home/niar/Desktop/Enseignement/ENSTA/TP/TP_Cache/Version_Individuel/Results/mul_normale_128.res:sim_num_insn               79722019 # total number of instructions executed
/home/niar/Desktop/Enseignement/ENSTA/TP/TP_Cache/Version_Individuel/Results/mul_normale_256.res:sim_num_insn               79722001 # total number of instructions executed
/home/niar/Desktop/Enseignement/ENSTA/TP/TP_Cache/Version_Individuel/Results/mul_normale_512.res:sim_num_insn               79721386 # total number of instructions executed
/home/niar/Desktop/Enseignement/ENSTA/TP/TP_Cache/Version_Individuel/Results/mul_pointer_128.res:sim_num_insn               22791995 # total number of instructions executed
/home/niar/Desktop/Enseignement/ENSTA/TP/TP_Cache/Version_Individuel/Results/mul_pointer_256.res:sim_num_insn               22792013 # total number of instructions executed
/home/niar/Desktop/Enseignement/ENSTA/TP/TP_Cache/Version_Individuel/Results/mul_pointer_512.res:sim_num_insn               22791380 # total number of instructions executed
/home/niar/Desktop/Enseignement/ENSTA/TP/TP_Cache/Version_Individuel/Results/mul_tempo_128.res:sim_num_insn               47481989 # total number of instructions executed
/home/niar/Desktop/Enseignement/ENSTA/TP/TP_Cache/Version_Individuel/Results/mul_tempo_256.res:sim_num_insn               47481987 # total number of instructions executed
/home/niar/Desktop/Enseignement/ENSTA/TP/TP_Cache/Version_Individuel/Results/mul_tempo_512.res:sim_num_insn               47482060 # total number of instructions executed
/home/niar/Desktop/Enseignement/ENSTA/TP/TP_Cache/Version_Individuel/Results/mul_unrol_cache128_n16.res:sim_num_insn               41433452 # total number of instructions executed
/home/niar/Desktop/Enseignement/ENSTA/TP/TP_Cache/Version_Individuel/Results/mul_unrol_cache128_n4.res:sim_num_insn               42293183 # total number of instructions executed
/home/niar/Desktop/Enseignement/ENSTA/TP/TP_Cache/Version_Individuel/Results/mul_unrol_cache128_n8.res:sim_num_insn               41793212 # total number of instructions executed
/home/niar/Desktop/Enseignement/ENSTA/TP/TP_Cache/Version_Individuel/Results/mul_unrol_cache256_n16.res:sim_num_insn               41433525 # total number of instructions executed
/home/niar/Desktop/Enseignement/ENSTA/TP/TP_Cache/Version_Individuel/Results/mul_unrol_cache256_n4.res:sim_num_insn               42293211 # total number of instructions executed
/home/niar/Desktop/Enseignement/ENSTA/TP/TP_Cache/Version_Individuel/Results/mul_unrol_cache256_n8.res:sim_num_insn               41793283 # total number of instructions executed
/home/niar/Desktop/Enseignement/ENSTA/TP/TP_Cache/Version_Individuel/Results/mul_unrol_cache512_n16.res:sim_num_insn               41432835 # total number of instructions executed
/home/niar/Desktop/Enseignement/ENSTA/TP/TP_Cache/Version_Individuel/Results/mul_unrol_cache512_n4.res:sim_num_insn               42293211 # total number of instructions executed
/home/niar/Desktop/Enseignement/ENSTA/TP/TP_Cache/Version_Individuel/Results/mul_unrol_cache512_n8.res:sim_num_insn               41793228 # total number of instructions executed
