sim-outorder –issue:inorder true votreprog.ss
